[General]
network = FairNetwork
sim-time-limit = ${simulationTime = 2000s}
repeat = 10
seed-set=${repetition}
num-rngs = 90

**.NUM_USER = ${nUser = 30}
**.TIMESLOT = 1800ms
**.packetGenerator.senders[*].lambda = ${1}

[Config binomialCQI]
**.user[*].useBinomialDistribution = true

