[General]
network = FairNetwork
sim-time-limit = 300s
repeat = 1
seed-set=${repetition}
num-rngs = 90

**.NUM_USER = ${nUser = 3,15,30}
**.TIMESLOT = 1000ms
**.packetGenerator.senders[*].lambda = ${0.5,1,1.5}
