[General]
network = FairNetwork
repeat = 1
seed-set=${repetition}
num-rngs = 50
sim-time-limit = 60s

**.NUM_USER = ${5,25,50}
**.packetGenerator.senders[*].lambda = ${1,0.5,1.5}
**.antenna.timeSlot = 1s
