[General]
network = FairNetwork
sim-time-limit = ${simulationTime = 70s}
repeat = 10
seed-set=${repetition}
num-rngs = 600
warmup-period = ${warmUp = 5000ms}

**.NUM_USER = ${nUser = 25, 50, 100, 150, 200}
**.TIMESLOT = ${timeslot = 1ms}
**.WARMUP = ${warmUp = 5000ms}
**.packetGenerator.senders[*].lambda = ${userLambda = 25, 50, 75, 100, 150, 200}

[Config binomialCQI]
**.user[*].useBinomialDistribution = true

