[General]
network = FairNetwork
sim-time-limit = ${simulationTime = 100s}
repeat = 10
seed-set=${repetition}
num-rngs = 90

**.NUM_USER = ${nUser = 3,15,30}
**.TIMESLOT = 1000ms
**.packetGenerator.senders[*].lambda = ${1}

[Config binomialCQI]
**.user[*].useBinomialDistribution = true

