[General]
network = FairNetwork
sim-time-limit = ${simulationTime = 100s}
repeat = 10
seed-set=${repetition}
num-rngs = 600
warmup-period = ${warmUp = 0s}


**.NUM_USER = ${nUser = 10, 50, 100, 150, 200}
**.TIMESLOT = ${timeSlot = 0.5ms, 0.75ms, 1ms, 1.25ms, 1.5ms}
**.packetGenerator.senders[*].lambda = ${userLambda = 2000, 1400, 800, 400, 100}

[Config binomialCQI]
**.user[*].useBinomialDistribution = true

